*Heading
** Job name: 2024_finord_ej1 Model name: Model-1
** Generated by: Abaqus/CAE Learning Edition 2022
*Preprint, echo=NO, model=NO, history=NO, contact=NO
**
** PARTS
**
*Part, name=Part-1
*Node
      1,   1.17770875,   7.17902088
      2,   1.39612448,   7.73553514
      3,   2.06779242,   8.72069073
      4,   2.50604081,   9.12732601
      5,   3.53863597,   9.72349453
      6,   4.70107985,   9.98881531
      7,   5.29892015,   9.98881531
      8,   6.46136427,   9.72349453
      9,   7.49395943,   9.12732601
     10,   7.93220758,   8.72069073
     11,   8.60387516,   7.73553514
     12,   8.82229137,   7.17902088
     13,           1.,           6.
     14,           9.,           6.
     15,           0.,           0.
     16,           1.,           0.
     17,   1.17770875,   1.17902064
     18,   1.39612448,   1.73553491
     19,   2.06779242,   2.72069097
     20,   2.50604081,   3.12732601
** ... 840 like lines cut
*Element, type=CPS8R
  1, 163, 109, 108, 168, 307, 308, 309, 310
  2, 273,  34,   3, 150, 311, 312, 313, 314
  3, 137, 165,  35,   5, 315, 316, 317, 318
  4, 220, 231, 186, 185, 319, 320, 321, 322
  5, 131, 216, 211, 117, 323, 324, 325, 326
  6, 292, 211, 216, 290, 327, 324, 328, 329
  7, 118, 212, 206, 119, 330, 331, 332, 333
  8, 154, 145,   7,  37, 334, 335, 336, 337
  9, 221, 172, 171, 232, 338, 339, 340, 341
 10,  10, 151, 155,   9, 342, 343, 344, 345
 11,  39, 135, 151,  10, 346, 347, 342, 348
 12, 274, 170,  11,  12, 349, 350, 351, 352
 13, 254, 170, 274, 139, 353, 349, 354, 355
 14, 193,  14,  52, 199, 356, 357, 358, 359
 15,  28, 143, 167,  27, 360, 361, 362, 363
 16,  60, 136, 152,  26, 364, 365, 366, 367
 17,  26, 152, 156,  25, 366, 368, 369, 370
 18,  24, 147, 133,  58, 371, 372, 373, 374
 19,  58, 133, 159,  23, 373, 375, 376, 377
 20,  22, 146, 138,  57, 378, 379, 380, 381
** ... 228 like lines cut
*Nset, nset=Set-1, generate
   1,  860,    1
*Elset, elset=Set-1, generate
   1,  248,    1
** Section: Section-1
*Solid Section, elset=Set-1, material=Material-1
1.,
*End Part
**  
**
** ASSEMBLY
**
*Assembly, name=Assembly
**  
*Instance, name=Part-1-1, part=Part-1
*End Instance
**  
*Nset, nset=Set-1, instance=Part-1-1
 31,
*Nset, nset=Set-2, instance=Part-1-1
  29,  30,  62, 488, 493
*Elset, elset=Set-2, instance=Part-1-1
 51, 52
*Nset, nset=Set-3, instance=Part-1-1
  15,  16,  53, 483, 584
*Elset, elset=Set-3, instance=Part-1-1
 49, 83
*Elset, elset=_Surf-1_S2, internal, instance=Part-1-1
   1,  29,  89,  91,  93,  94, 163, 214
*Elset, elset=_Surf-1_S3, internal, instance=Part-1-1
  25,  71,  90, 136, 138, 149, 153
*Elset, elset=_Surf-1_S1, internal, instance=Part-1-1
  70,  83,  98, 168
*Elset, elset=_Surf-1_S4, internal, instance=Part-1-1
 87,
*Surface, type=ELEMENT, name=Surf-1
_Surf-1_S2, S2
_Surf-1_S3, S3
_Surf-1_S4, S4
_Surf-1_S1, S1
*End Assembly
** 
** MATERIALS
** 
*Material, name=Material-1
*Elastic
 2.2e+11, 0.19
** ----------------------------------------------------------------
** 
** STEP: Step-1
** 
*Step, name=Step-1, nlgeom=NO
*Static
1., 1., 1e-05, 1.
** 
** BOUNDARY CONDITIONS
** 
** Name: BC-1 Type: Displacement/Rotation
*Boundary
Set-2, 1, 1
Set-2, 2, 2
** Name: BC-2 Type: Displacement/Rotation
*Boundary
Set-3, 2, 2
** 
** LOADS
** 
** Name: Load-1   Type: Pressure
*Dsload
Surf-1, P, 750000.
** Name: Load-2   Type: Concentrated force
*Cload
Set-1, 2, -1.5e+07
** 
** OUTPUT REQUESTS
** 
*Restart, write, frequency=0
** 
** FIELD OUTPUT: F-Output-1
** 
*Output, field, variable=PRESELECT
** 
** HISTORY OUTPUT: H-Output-1
** 
*Output, history, variable=PRESELECT
*End Step
