*Heading
** Job name: Ej4-24-I Model name: Model-1
** Generated by: Abaqus/CAE Learning Edition 2022
*Preprint, echo=NO, model=NO, history=NO, contact=NO
**
** PARTS
**
*Part, name=Part-1
*Node
      1,           5.,           0.,           6.
      2,       4.6875,       0.3125,           6.
      3,        4.375,        0.625,           6.
      4,       4.0625,       0.9375,           6.
      5,         3.75,         1.25,           6.
      6,       3.4375,       1.5625,           6.
      7,        3.125,        1.875,           6.
      8,       2.8125,       2.1875,           6.
      9,          2.5,          2.5,           6.
     10,       2.1875,       2.8125,           6.
     11,        1.875,        3.125,           6.
     12,       1.5625,       3.4375,           6.
     13,         1.25,         3.75,           6.
     14,       0.9375,       4.0625,           6.
     15,        0.625,        4.375,           6.
     16,       0.3125,       4.6875,           6.
     17,           0.,           5.,           6.
     18,           5.,           0.,        5.625
     19,       4.6875,       0.3125,        5.625
     20,        4.375,        0.625,        5.625
** ... 847 like lines cut
*Element, type=C3D8I
  1, 290, 291, 308, 307,   1,   2,  19,  18
  2, 291, 292, 309, 308,   2,   3,  20,  19
  3, 292, 293, 310, 309,   3,   4,  21,  20
  4, 293, 294, 311, 310,   4,   5,  22,  21
  5, 294, 295, 312, 311,   5,   6,  23,  22
  6, 295, 296, 313, 312,   6,   7,  24,  23
  7, 296, 297, 314, 313,   7,   8,  25,  24
  8, 297, 298, 315, 314,   8,   9,  26,  25
  9, 298, 299, 316, 315,   9,  10,  27,  26
 10, 299, 300, 317, 316,  10,  11,  28,  27
 11, 300, 301, 318, 317,  11,  12,  29,  28
 12, 301, 302, 319, 318,  12,  13,  30,  29
 13, 302, 303, 320, 319,  13,  14,  31,  30
 14, 303, 304, 321, 320,  14,  15,  32,  31
 15, 304, 305, 322, 321,  15,  16,  33,  32
 16, 305, 306, 323, 322,  16,  17,  34,  33
 17, 307, 308, 325, 324,  18,  19,  36,  35
 18, 308, 309, 326, 325,  19,  20,  37,  36
 19, 309, 310, 327, 326,  20,  21,  38,  37
 20, 310, 311, 328, 327,  21,  22,  39,  38
** ... 492 like lines cut
*Nset, nset=Set-1, generate
   1,  867,    1
*Elset, elset=Set-1, generate
   1,  512,    1
** Section: Section-1
*Solid Section, elset=Set-1, material=Material-1
,
*End Part
**  
**
** ASSEMBLY
**
*Assembly, name=Assembly
**  
*Instance, name=Part-1-1, part=Part-1
*End Instance
**  
*Nset, nset=Set-1, instance=Part-1-1, generate
   1,  851,   17
*Elset, elset=Set-1, instance=Part-1-1, generate
   1,  497,   16
*Nset, nset=Set-2, instance=Part-1-1, generate
  17,  867,   17
*Elset, elset=Set-2, instance=Part-1-1, generate
  16,  512,   16
*Nset, nset=Set-3, instance=Part-1-1
 273, 274, 275, 276, 277, 278, 279, 280, 281, 282, 283, 284, 285, 286, 287, 288
 289, 562, 563, 564, 565, 566, 567, 568, 569, 570, 571, 572, 573, 574, 575, 576
 577, 578, 851, 852, 853, 854, 855, 856, 857, 858, 859, 860, 861, 862, 863, 864
 865, 866, 867
*Elset, elset=Set-3, instance=Part-1-1
 241, 242, 243, 244, 245, 246, 247, 248, 249, 250, 251, 252, 253, 254, 255, 256
 497, 498, 499, 500, 501, 502, 503, 504, 505, 506, 507, 508, 509, 510, 511, 512
*Nset, nset=Set-4, instance=Part-1-1
 579, 851
*Nset, nset=Set-5, instance=Part-1-1
 595, 867
*End Assembly
** 
** MATERIALS
** 
*Material, name=Material-1
*Elastic
 2.05e+10, 0.23
** ----------------------------------------------------------------
** 
** STEP: Step-1
** 
*Step, name=Step-1, nlgeom=NO
*Static
1., 1., 1e-05, 1.
** 
** BOUNDARY CONDITIONS
** 
** Name: BC-1 Type: Displacement/Rotation
*Boundary
Set-1, 2, 2
** Name: BC-2 Type: Displacement/Rotation
*Boundary
Set-2, 1, 1
** Name: BC-3 Type: Displacement/Rotation
*Boundary
Set-3, 3, 3
** 
** LOADS
** 
** Name: Load-1   Type: Concentrated force
*Cload
Set-4, 1, -1e+06
** Name: Load-2   Type: Concentrated force
*Cload
Set-5, 2, 1e+06
** 
** OUTPUT REQUESTS
** 
*Restart, write, frequency=0
** 
** FIELD OUTPUT: F-Output-1
** 
*Output, field, variable=PRESELECT
** 
** HISTORY OUTPUT: H-Output-1
** 
*Output, history, variable=PRESELECT
*End Step
