*Heading
** Job name: PP+Viento+Nieve Model name: Model-1
** Generated by: Abaqus/CAE Learning Edition 2022
*Preprint, echo=NO, model=NO, history=NO, contact=NO
**
** PARTS
**
*Part, name=Part-1
*Node
      1,           9.,          16.
      2,          14.,          16.
      3,          18.,          16.
      4,          18.,          13.
      5,          18.,          10.
      6,          18.,           7.
      7,          18.,           4.
      8,          14.,           4.
      9,          14.,           0.
     10,           9.,          13.
     11,           4.,          16.
     12,           4.,          13.
     13,           0.,          13.
     14,           0.,          16.
     15,          14.,          13.
     16,          14.,          10.
     17,          14.,           7.
     18,          18.,           0.
     19,           9.,           4.
     20,           9.,          10.
** ... 530 like lines cut
*Element, type=B21
 1,  1, 31
 2, 31, 32
 3, 32, 33
 4, 33, 34
 5, 34, 35
 6, 35, 36
 7, 36, 37
 8, 37, 38
 9, 38, 39
10, 39, 40
11, 40, 41
12, 41, 42
13, 42, 43
14, 43, 44
15, 44, 45
16, 45, 46
17, 46,  2
18,  2, 47
19, 47, 48
20, 48, 49
** ... 545 like lines cut
*Nset, nset=pisos40x40
   5,   6,   7,   8,   9,  16,  17,  18,  19,  20,  21,  22,  23,  24,  25,  26
  27,  28,  29,  30,  77,  78,  79,  80,  81,  82,  83,  84,  85,  86,  87,  88
  89,  90,  91,  92,  93,  94, 107, 108, 109, 110, 111, 112, 113, 114, 115, 116
 117, 118, 219, 220, 221, 222, 223, 224, 225, 226, 227, 228, 229, 230, 231, 232
 233, 234, 235, 236, 249, 250, 251, 252, 253, 254, 255, 256, 257, 258, 259, 260
 327, 328, 329, 330, 331, 332, 333, 334, 335, 373, 374, 375, 376, 377, 378, 379
 380, 381, 419, 420, 421, 422, 423, 424, 425, 426, 427, 428, 429, 430, 431, 432
 433, 434, 435, 436, 437, 438, 439, 472, 473, 474, 475, 476, 477, 478, 479, 480
 481, 482, 483, 484, 485, 486, 487, 488, 489, 506, 507, 508, 509, 510, 511, 512
 513, 514, 515, 516, 517, 518, 519, 520, 521, 522, 523, 524, 525, 526, 527, 528
 529, 530, 531, 532, 533, 534, 535, 536, 537, 538
*Elset, elset=pisos40x40
  51,  52,  53,  54,  55,  56,  57,  58,  59,  60,  61,  62,  63,  64,  65,  66
  67,  68,  69,  70,  84,  85,  86,  87,  88,  89,  90,  91,  92,  93,  94,  95
  96, 206, 207, 208, 209, 210, 211, 212, 213, 214, 215, 216, 217, 218, 219, 220
 221, 222, 223, 224, 225, 239, 240, 241, 242, 243, 244, 245, 246, 247, 248, 249
 250, 251, 323, 324, 325, 326, 327, 328, 329, 330, 331, 332, 373, 374, 375, 376
 377, 378, 379, 380, 381, 382, 423, 424, 425, 426, 427, 428, 429, 430, 431, 432
 433, 434, 435, 436, 437, 438, 439, 440, 441, 442, 443, 444, 445, 480, 481, 482
 483, 484, 485, 486, 487, 488, 489, 490, 491, 492, 493, 494, 495, 496, 497, 498
 499, 517, 518, 519, 520, 521, 522, 523, 524, 525, 526, 527, 528, 529, 530, 531
 532, 533, 534, 535, 536, 537, 538, 539, 540, 541, 542, 543, 544, 545, 546, 547
 548, 549, 550, 551, 552
*Nset, nset=Set-2
   1,   2,   3,   4,   5,  10,  11,  12,  13,  14,  15,  16,  20,  22,  23,  59
  60,  61,  62,  63,  64,  65,  66,  67,  68,  69,  70,  71,  72,  73,  74,  75
  76, 119, 120, 121, 122, 123, 124, 125, 126, 127, 144, 145, 146, 147, 148, 149
 150, 151, 152, 165, 166, 167, 168, 169, 170, 171, 172, 173, 186, 187, 188, 189
 190, 191, 192, 193, 194, 277, 278, 279, 280, 281, 282, 283, 284, 285, 302, 303
 304, 305, 306, 307, 308, 309, 310, 352, 353, 354, 355, 356, 357, 358, 359, 360
 410, 411, 412, 413, 414, 415, 416, 417, 418
*Elset, elset=Set-2
  31,  32,  33,  34,  35,  36,  37,  38,  39,  40,  41,  42,  43,  44,  45,  46
  47,  48,  49,  50,  97,  98,  99, 100, 101, 102, 103, 104, 105, 106, 124, 125
 126, 127, 128, 129, 130, 131, 132, 133, 147, 148, 149, 150, 151, 152, 153, 154
 155, 156, 170, 171, 172, 173, 174, 175, 176, 177, 178, 179, 269, 270, 271, 272
 273, 274, 275, 276, 277, 278, 296, 297, 298, 299, 300, 301, 302, 303, 304, 305
 350, 351, 352, 353, 354, 355, 356, 357, 358, 359, 413, 414, 415, 416, 417, 418
 419, 420, 421, 422
*Nset, nset=Set-3
   1,   2,   3,   4,   5,   6,   7,   8,  10,  11,  12,  13,  14,  15,  16,  17
  19,  20,  21,  22,  23,  24,  25,  27,  28,  31,  32,  33,  34,  35,  36,  37
  38,  39,  40,  41,  42,  43,  44,  45,  46,  47,  48,  49,  50,  51,  52,  53
  54,  55,  56,  57,  58,  95,  96,  97,  98,  99, 100, 101, 102, 103, 104, 105
 106, 128, 129, 130, 131, 132, 133, 134, 135, 136, 137, 138, 139, 140, 141, 142
 143, 153, 154, 155, 156, 157, 158, 159, 160, 161, 162, 163, 164, 174, 175, 176
 177, 178, 179, 180, 181, 182, 183, 184, 185, 195, 196, 197, 198, 199, 200, 201
 202, 203, 204, 205, 206, 207, 208, 209, 210, 211, 212, 213, 214, 215, 216, 217
 218, 237, 238, 239, 240, 241, 242, 243, 244, 245, 246, 247, 248, 261, 262, 263
 264, 265, 266, 267, 268, 269, 270, 271, 272, 273, 274, 275, 276, 286, 287, 288
 289, 290, 291, 292, 293, 294, 295, 296, 297, 298, 299, 300, 301, 311, 312, 313
 314, 315, 316, 317, 318, 319, 320, 321, 322, 323, 324, 325, 326, 336, 337, 338
 339, 340, 341, 342, 343, 344, 345, 346, 347, 348, 349, 350, 351, 361, 362, 363
 364, 365, 366, 367, 368, 369, 370, 371, 372, 382, 383, 384, 385, 386, 387, 388
 389, 390, 391, 392, 393, 394, 395, 396, 397, 398, 399, 400, 401, 402, 403, 404
 405, 406, 407, 408, 409, 440, 441, 442, 443, 444, 445, 446, 447, 448, 449, 450
 451, 452, 453, 454, 455, 456, 457, 458, 459, 460, 461, 462, 463, 464, 465, 466
 467, 468, 469, 470, 471, 490, 491, 492, 493, 494, 495, 496, 497, 498, 499, 500
 501, 502, 503, 504, 505, 539, 540, 541, 542, 543, 544, 545, 546, 547, 548, 549
 550,
*Elset, elset=Set-3
   1,   2,   3,   4,   5,   6,   7,   8,   9,  10,  11,  12,  13,  14,  15,  16
  17,  18,  19,  20,  21,  22,  23,  24,  25,  26,  27,  28,  29,  30,  71,  72
  73,  74,  75,  76,  77,  78,  79,  80,  81,  82,  83, 107, 108, 109, 110, 111
 112, 113, 114, 115, 116, 117, 118, 119, 120, 121, 122, 123, 134, 135, 136, 137
 138, 139, 140, 141, 142, 143, 144, 145, 146, 157, 158, 159, 160, 161, 162, 163
 164, 165, 166, 167, 168, 169, 180, 181, 182, 183, 184, 185, 186, 187, 188, 189
 190, 191, 192, 193, 194, 195, 196, 197, 198, 199, 200, 201, 202, 203, 204, 205
 226, 227, 228, 229, 230, 231, 232, 233, 234, 235, 236, 237, 238, 252, 253, 254
 255, 256, 257, 258, 259, 260, 261, 262, 263, 264, 265, 266, 267, 268, 279, 280
 281, 282, 283, 284, 285, 286, 287, 288, 289, 290, 291, 292, 293, 294, 295, 306
 307, 308, 309, 310, 311, 312, 313, 314, 315, 316, 317, 318, 319, 320, 321, 322
 333, 334, 335, 336, 337, 338, 339, 340, 341, 342, 343, 344, 345, 346, 347, 348
 349, 360, 361, 362, 363, 364, 365, 366, 367, 368, 369, 370, 371, 372, 383, 384
 385, 386, 387, 388, 389, 390, 391, 392, 393, 394, 395, 396, 397, 398, 399, 400
 401, 402, 403, 404, 405, 406, 407, 408, 409, 410, 411, 412, 446, 447, 448, 449
 450, 451, 452, 453, 454, 455, 456, 457, 458, 459, 460, 461, 462, 463, 464, 465
 466, 467, 468, 469, 470, 471, 472, 473, 474, 475, 476, 477, 478, 479, 500, 501
 502, 503, 504, 505, 506, 507, 508, 509, 510, 511, 512, 513, 514, 515, 516, 553
 554, 555, 556, 557, 558, 559, 560, 561, 562, 563, 564, 565
*Nset, nset=Set-4
   2,   3,   4,   5,   6,   7,   8,  10,  11,  12,  13,  15,  16,  17,  19,  20
  21,  22,  25,  27,  28,  59,  60,  61,  62,  63,  64,  65,  66,  67,  68,  69
  70,  71,  72,  73,  74,  75,  76,  77,  78,  79,  80,  81,  82,  83,  84,  85
  86,  87,  88,  89,  90,  91,  92,  93,  94,  95,  96,  97,  98,  99, 100, 101
 102, 103, 104, 105, 106, 144, 145, 146, 147, 148, 149, 150, 151, 152, 153, 154
 155, 156, 157, 158, 159, 160, 161, 162, 163, 164, 186, 187, 188, 189, 190, 191
 192, 193, 194, 195, 196, 197, 198, 199, 200, 201, 202, 203, 204, 205, 206, 219
 220, 221, 222, 223, 224, 225, 226, 227, 228, 229, 230, 231, 232, 233, 234, 235
 236, 261, 262, 263, 264, 265, 266, 267, 268, 269, 270, 271, 272, 273, 274, 275
 276, 277, 278, 279, 280, 281, 282, 283, 284, 285, 286, 287, 288, 289, 290, 291
 292, 293, 294, 295, 296, 297, 298, 299, 300, 301, 302, 303, 304, 305, 306, 307
 308, 309, 310, 327, 328, 329, 330, 331, 332, 333, 334, 335, 419, 420, 421, 422
 423, 424, 425, 426, 427, 440, 441, 442, 443, 444, 445, 446, 447, 448, 449, 450
 451, 452, 453, 454, 455, 472, 473, 474, 475, 476, 477, 478, 479, 480, 481, 482
 483, 484, 485, 486, 487, 488, 489, 490, 491, 492, 493, 494, 495, 496, 497, 498
 499, 500, 501, 502, 503, 504, 505, 539, 540, 541, 542, 543, 544, 545, 546, 547
 548, 549, 550
*Elset, elset=Set-4
  31,  32,  33,  34,  35,  36,  37,  38,  39,  40,  41,  42,  43,  44,  45,  46
  47,  48,  49,  50,  51,  52,  53,  54,  55,  56,  57,  58,  59,  60,  61,  62
  63,  64,  65,  66,  67,  68,  69,  70,  71,  72,  73,  74,  75,  76,  77,  78
  79,  80,  81,  82,  83, 124, 125, 126, 127, 128, 129, 130, 131, 132, 133, 134
 135, 136, 137, 138, 139, 140, 141, 142, 143, 144, 145, 146, 170, 171, 172, 173
 174, 175, 176, 177, 178, 179, 180, 181, 182, 183, 184, 185, 186, 187, 188, 189
 190, 191, 192, 206, 207, 208, 209, 210, 211, 212, 213, 214, 215, 216, 217, 218
 219, 220, 221, 222, 223, 224, 225, 252, 253, 254, 255, 256, 257, 258, 259, 260
 261, 262, 263, 264, 265, 266, 267, 268, 269, 270, 271, 272, 273, 274, 275, 276
 277, 278, 279, 280, 281, 282, 283, 284, 285, 286, 287, 288, 289, 290, 291, 292
 293, 294, 295, 296, 297, 298, 299, 300, 301, 302, 303, 304, 305, 323, 324, 325
 326, 327, 328, 329, 330, 331, 332, 423, 424, 425, 426, 427, 428, 429, 430, 431
 432, 446, 447, 448, 449, 450, 451, 452, 453, 454, 455, 456, 457, 458, 459, 460
 461, 462, 480, 481, 482, 483, 484, 485, 486, 487, 488, 489, 490, 491, 492, 493
 494, 495, 496, 497, 498, 499, 500, 501, 502, 503, 504, 505, 506, 507, 508, 509
 510, 511, 512, 513, 514, 515, 516, 553, 554, 555, 556, 557, 558, 559, 560, 561
 562, 563, 564, 565
*Nset, nset=Set-6
   1,  10, 119, 120, 121, 122, 123, 124, 125, 126, 127
*Elset, elset=Set-6, generate
  97,  106,    1
*Nset, nset=Set-8
  12,  22, 352, 353, 354, 355, 356, 357, 358, 359, 360
*Elset, elset=Set-8, generate
 350,  359,    1
*Nset, nset=Set-10, generate
   1,  550,    1
*Elset, elset=Set-10, generate
   1,  565,    1
** Section: sect70x30  Profile: Profile-3
*Beam General Section, elset=Set-3, poisson = 0.25, density=2500., section=RECT
0.7, 0.3
0.,0.,-1.
 3e+10, 1.2e+10
** Section: Sect30x30  Profile: Profile-1
*Beam General Section, elset=Set-2, poisson = 0.25, density=2500., section=RECT
0.4, 0.4
0.,0.,-1.
 3e+10, 1.2e+10
** Section: sect40x40  Profile: Profile-1
*Beam General Section, elset=pisos40x40, poisson = 0.25, density=2500., section=RECT
0.4, 0.4
0.,0.,-1.
 3e+10, 1.2e+10
*End Part
**  
**
** ASSEMBLY
**
*Assembly, name=Assembly
**  
*Instance, name=Part-1-1, part=Part-1
*End Instance
**  
*Nset, nset=Set-1, instance=Part-1-1
  9, 18, 26, 29, 30
*Nset, nset=Set-2, instance=Part-1-1, generate
   1,  550,    1
*Elset, elset=Set-2, instance=Part-1-1, generate
   1,  565,    1
*Nset, nset=Set-3, instance=Part-1-1
  3, 11
*Nset, nset=Set-4, instance=Part-1-1, generate
   1,  550,    1
*Elset, elset=Set-4, instance=Part-1-1, generate
   1,  565,    1
*Nset, nset=Set-5, instance=Part-1-1
  13,  14,  23,  24,  28,  29, 165, 166, 167, 168, 169, 170, 171, 172, 173, 373
 374, 375, 376, 377, 378, 379, 380, 381, 410, 411, 412, 413, 414, 415, 416, 417
 418, 506, 507, 508, 509, 510, 511, 512, 513, 514, 515, 516, 517, 518, 519, 520
 521, 522, 523, 524, 525, 526
*Elset, elset=Set-5, instance=Part-1-1
 147, 148, 149, 150, 151, 152, 153, 154, 155, 156, 373, 374, 375, 376, 377, 378
 379, 380, 381, 382, 413, 414, 415, 416, 417, 418, 419, 420, 421, 422, 517, 518
 519, 520, 521, 522, 523, 524, 525, 526, 527, 528, 529, 530, 531, 532, 533, 534
 535, 536, 537, 538, 539
*Nset, nset=Set-6, instance=Part-1-1
   1,   2,   3,  11,  14,  31,  32,  33,  34,  35,  36,  37,  38,  39,  40,  41
  42,  43,  44,  45,  46,  47,  48,  49,  50,  51,  52,  53,  54,  55,  56,  57
  58, 128, 129, 130, 131, 132, 133, 134, 135, 136, 137, 138, 139, 140, 141, 142
 143, 174, 175, 176, 177, 178, 179, 180, 181, 182, 183, 184, 185
*Elset, elset=Set-6, instance=Part-1-1
   1,   2,   3,   4,   5,   6,   7,   8,   9,  10,  11,  12,  13,  14,  15,  16
  17,  18,  19,  20,  21,  22,  23,  24,  25,  26,  27,  28,  29,  30, 107, 108
 109, 110, 111, 112, 113, 114, 115, 116, 117, 118, 119, 120, 121, 122, 123, 157
 158, 159, 160, 161, 162, 163, 164, 165, 166, 167, 168, 169
*Elset, elset=_Surf-1_SPOS, internal, instance=Part-1-1
 147, 148, 149, 150, 151, 152, 153, 154, 155, 156, 373, 374, 375, 376, 377, 378
 379, 380, 381, 382, 413, 414, 415, 416, 417, 418, 419, 420, 421, 422, 517, 518
 519, 520, 521, 522, 523, 524, 525, 526, 527, 528, 529, 530, 531, 532, 533, 534
 535, 536, 537, 538, 539
*Surface, type=ELEMENT, name=Surf-1
_Surf-1_SPOS, SPOS
*Elset, elset=_Surf-2_SPOS, internal, instance=Part-1-1
 147, 148, 149, 150, 151, 152, 153, 154, 155, 156, 373, 374, 375, 376, 377, 378
 379, 380, 381, 382, 413, 414, 415, 416, 417, 418, 419, 420, 421, 422, 517, 518
 519, 520, 521, 522, 523, 524, 525, 526, 527, 528, 529, 530, 531, 532, 533, 534
 535, 536, 537, 538, 539
*Surface, type=ELEMENT, name=Surf-2
_Surf-2_SPOS, SPOS
*End Assembly
** 
** MATERIALS
** 
*Material, name=Material-1
*Density
2500.,
*Elastic
 3e+10, 0.25
** ----------------------------------------------------------------
** 
** STEP: Step-1
** 
*Step, name=Step-1, nlgeom=NO
*Static
1., 1., 1e-05, 1.
** 
** BOUNDARY CONDITIONS
** 
** Name: BC-1 Type: Displacement/Rotation
*Boundary
Set-1, 1, 1
Set-1, 2, 2
Set-1, 6, 6
** 
** LOADS
** 
** Name: Load-1   Type: Gravity
*Dload
, GRAV, 9.8, 0., -1.
** Name: Nieve   Type: Line load
*Dload
Set-6, PY, -4500.
** Name: Viento   Type: Line load Using Field: AnalyticalField-1
*Dload
Part-1-1.147, PX, 1223.87
Part-1-1.148, PX, 1237.76
Part-1-1.149, PX, 1251.48
Part-1-1.150, PX, 1265.06
Part-1-1.151, PX, 1278.5
Part-1-1.152, PX, 1291.79
Part-1-1.153, PX, 1304.95
Part-1-1.154, PX, 1317.98
Part-1-1.155, PX, 1330.88
Part-1-1.156, PX, 1343.66
Part-1-1.373, PX, 902.458
Part-1-1.374, PX, 921.196
Part-1-1.375, PX, 939.56
Part-1-1.376, PX, 957.573
Part-1-1.377, PX, 975.252
Part-1-1.378, PX, 992.617
Part-1-1.379, PX, 1009.68
Part-1-1.380, PX, 1026.47
Part-1-1.381, PX, 1042.98
Part-1-1.382, PX, 1059.23
** ... 33 like lines cut
** 
** OUTPUT REQUESTS
** 
*Restart, write, frequency=0
** 
** FIELD OUTPUT: F-Output-1
** 
*Output, field
*Node Output
CF, RF, RM, U, UR
*Element Output, directions=YES
MISES, NFORCSO, S, SF
** 
** HISTORY OUTPUT: H-Output-1
** 
*Output, history, variable=PRESELECT
*End Step
