*Heading
** Job name: 2025-finord-ej1 Model name: Model-1
** Generated by: Abaqus/CAE Learning Edition 2025
*Preprint, echo=NO, model=NO, history=NO, contact=NO
**
** PARTS
**
*Part, name=Part-1
*Node
      1,           0.,           0.
      2,           0.,           5.
      3,   1.79999995,           0.
      4,   1.79999995,  0.400000006
      5,           1.,  0.400000006
      6,           1.,    4.5999999
      7,   1.79999995,    4.5999999
      8,   1.79999995,           5.
      9,           1.,           5.
     10,   1.05764413,   5.58527088
     11,   1.35423625,   6.41419029
     12,   1.68096864,   6.90317965
     13,   2.09682012,   7.31903124
     14,   2.58580971,   7.64576387
     15,   3.41472912,   7.94235563
     16,           4.,           8.
     17,           4.,           9.
     18,  0.100288354,   5.89008379
     19,  0.276504993,   6.46136427
     20,  0.695044875,   7.25328016
** ... 534 like lines cut
*Element, type=CPE8R
  1,  41,  42, 192, 194, 201, 202, 203, 204
  2, 190, 193,  47,   5, 205, 206, 207, 208
  3, 154, 153,  49,  50, 209, 210, 211, 212
  4, 173, 174, 120, 172, 213, 214, 215, 216
  5,  95,  40,  39, 100, 217, 218, 219, 220
  6,  10,  66, 111, 109, 221, 222, 223, 224
  7, 117, 111,  66,  67, 225, 222, 226, 227
  8, 123, 130, 161, 164, 228, 229, 230, 231
  9, 110, 121,  69,  13, 232, 233, 234, 235
 10, 119, 110,  13,  70, 236, 235, 237, 238
 11, 171, 138, 112, 116, 239, 240, 241, 242
 12,  24, 171, 137,  87, 243, 244, 245, 246
 13, 139, 189,  75,  74, 247, 248, 249, 250
 14, 195,  61,  89,  90, 251, 252, 253, 254
 15, 156,  62,   7,   8, 255, 256, 257, 258
 16, 115,  71, 112, 167, 259, 260, 261, 262
 17, 108, 119,  70,  14, 263, 238, 264, 265
 18, 164, 163, 134, 123, 266, 267, 268, 231
 19, 107, 113,  68,  12, 269, 270, 271, 272
 20, 166, 172, 120, 109, 273, 215, 274, 275
** ... 135 like lines cut
*Nset, nset=Set-1, generate
   1,  554,    1
*Elset, elset=Set-1, generate
   1,  155,    1
** Section: Section-1
*Solid Section, elset=Set-1, material=Material-1
,
*End Part
**  
**
** ASSEMBLY
**
*Assembly, name=Assembly
**  
*Instance, name=Part-1-1, part=Part-1
*End Instance
**  
*Nset, nset=Set-1, instance=Part-1-1
   1,   3,  41,  42,  43,  44,  45, 201, 276, 333, 336, 339, 536
*Elset, elset=Set-1, instance=Part-1-1
   1,  21,  37,  38,  39, 125
*Nset, nset=Set-2, instance=Part-1-1
 8,
*Nset, nset=Set-3, instance=Part-1-1
  16,  17,  74,  75, 249, 408, 411
*Elset, elset=Set-3, instance=Part-1-1
 13, 62, 63
*Elset, elset=_Surf-1_S4, internal, instance=Part-1-1
  12,  54,  59,  64,  73,  74,  99, 101, 104
*Elset, elset=_Surf-1_S2, internal, instance=Part-1-1
  63, 105, 106, 107, 108, 109, 110, 111, 112, 114, 116
*Elset, elset=_Surf-1_S1, internal, instance=Part-1-1
 117,
*Surface, type=ELEMENT, name=Surf-1
_Surf-1_S4, S4
_Surf-1_S2, S2
_Surf-1_S1, S1
*End Assembly
** 
** MATERIALS
** 
*Material, name=Material-1
*Elastic
 1.8e+11, 0.2
** ----------------------------------------------------------------
** 
** STEP: Step-1
** 
*Step, name=Step-1, nlgeom=NO
*Static
1., 1., 1e-05, 1.
** 
** BOUNDARY CONDITIONS
** 
** Name: BC-1 Type: Displacement/Rotation
*Boundary
Set-1, 1, 1
Set-1, 2, 2
** Name: BC-2 Type: Displacement/Rotation
*Boundary
Set-3, 1, 1
** 
** LOADS
** 
** Name: Load-1   Type: Concentrated force
*Cload
Set-2, 1, -500000.
** Name: Load-2   Type: Surface traction
*Dsload
Surf-1, TRVEC, 2.5e+06, 0., -1., 0.
** 
** OUTPUT REQUESTS
** 
*Restart, write, frequency=0
** 
** FIELD OUTPUT: F-Output-1
** 
*Output, field, variable=PRESELECT
** 
** HISTORY OUTPUT: H-Output-1
** 
*Output, history, variable=PRESELECT
*End Step
