*Heading
** Job name: 2024_Ej_2 Model name: Model-1
** Generated by: Abaqus/CAE Learning Edition 2022
*Preprint, echo=NO, model=NO, history=NO, contact=NO
**
** PARTS
**
*Part, name=Part-4
*Node
      1,          17.,          3.5
      2,          10.,           0.
      3,          17.,           0.
      4,          17.,           1.
      5,          10.,          3.5
      6,           0.,           0.
      7,          12.,          3.5
      8,           0.,          3.5
      9,   16.7307701,   3.36538458
     10,   16.4615383,   3.23076916
     11,   16.1923084,   3.09615374
     12,   15.9230766,   2.96153855
     13,   15.6538458,   2.82692313
     14,   15.3846149,   2.69230771
     15,   15.1153851,   2.55769229
     16,   14.8461542,   2.42307687
     17,   14.5769234,   2.28846145
     18,   14.3076925,   2.15384626
     19,   14.0384617,   2.01923084
     20,   13.7692308,   1.88461542
** ... 826 like lines cut
*Element, type=DC2D3
1,  33,   2,  34
2, 267, 249, 246
3, 281, 278, 282
4, 279, 244, 251
5, 323, 307, 305
6, 323, 304, 322
161,  98,   6,  99
162,   9,   1, 131
163, 407, 400, 135
164, 422,  92, 419
165, 564, 529, 524
166, 603, 659, 570
167, 593, 351, 659
168, 616, 100, 101
169, 622, 372, 517
170, 626, 331, 471
171, 642, 360, 613
172, 658, 351, 655
561,  65,   5, 164
562, 836, 828, 829
563, 837, 820, 821
564, 836, 821, 818
*Element, type=DC2D4
  7, 196,  12,  13, 215
  8, 210,  48,  49, 228
  9,  32,  33,  34,  35
 10,  31,  32,  35,  36
 11, 199,  37,  38, 217
 12,  30, 198, 199,  29
 13,  29, 199, 200,  28
 14,  28, 200, 201,  27
 15, 201, 200, 202, 254
 16, 218, 201, 254, 317
 17,  41, 204, 203,  40
 18,  42, 205, 204,  41
 19, 223,  44,  45, 224
 20, 222,  22,  23, 221
 21, 252, 207, 222, 244
 22,  21, 207, 208,  20
 23, 228,  49,  50, 211
 24, 262, 294, 289, 266
 25, 214, 216, 272, 271
 26,  59,  60, 214, 212
** ... 746 like lines cut
*Nset, nset=_PickedSet2_#1, internal
   5,   6,   8,  65,  66,  67,  68,  69,  70,  71,  72,  73,  74,  75,  76,  77
  78,  79,  80,  81,  82,  83,  84,  85,  86,  87,  88,  89,  90,  91,  92,  93
  94,  95,  96,  97,  98, 153, 154, 155, 156, 157, 158, 159, 160, 161, 162, 163
 164, 165, 166, 167, 168, 169, 170, 171, 172, 173, 174, 175, 176, 177, 178, 179
 180, 181, 182, 183, 184, 185, 186, 187, 188, 189, 190, 191, 192, 193, 194, 195
 660, 661, 662, 663, 664, 665, 666, 667, 668, 669, 670, 671, 672, 673, 674, 675
 676, 677, 678, 679, 680, 681, 682, 683, 684, 685, 686, 687, 688, 689, 690, 691
 692, 693, 694, 695, 696, 697, 698, 699, 700, 701, 702, 703, 704, 705, 706, 707
 708, 709, 710, 711, 712, 713, 714, 715, 716, 717, 718, 719, 720, 721, 722, 723
 724, 725, 726, 727, 728, 729, 730, 731, 732, 733, 734, 735, 736, 737, 738, 739
 740, 741, 742, 743, 744, 745, 746, 747, 748, 749, 750, 751, 752, 753, 754, 755
 756, 757, 758, 759, 760, 761, 762, 763, 764, 765, 766, 767, 768, 769, 770, 771
 772, 773, 774, 775, 776, 777, 778, 779, 780, 781, 782, 783, 784, 785, 786, 787
 788, 789, 790, 791, 792, 793, 794, 795, 796, 797, 798, 799, 800, 801, 802, 803
 804, 805, 806, 807, 808, 809, 810, 811, 812, 813, 814, 815, 816, 817, 818, 819
 820, 821, 822, 823, 824, 825, 826, 827, 828, 829, 830, 831, 832, 833, 834, 835
 836, 837, 838, 839, 840, 841, 842, 843, 844, 845, 846
*Elset, elset=_PickedSet2_#1, internal, generate
 561,  788,    1
*Nset, nset=_PickedSet2_#2, internal
   1,   2,   5,   6,   7,   9,  10,  11,  12,  13,  14,  15,  16,  17,  18,  19
  20,  21,  22,  23,  24,  25,  26,  27,  28,  29,  30,  31,  32,  33,  65,  66
  67,  68,  69,  70,  71,  72,  73,  74,  75,  76,  77,  78,  79,  80,  81,  82
  83,  84,  85,  86,  87,  88,  89,  90,  91,  92,  93,  94,  95,  96,  97,  98
  99, 100, 101, 102, 103, 104, 105, 106, 107, 108, 109, 110, 111, 112, 113, 114
 115, 116, 117, 118, 119, 120, 121, 122, 123, 124, 125, 126, 127, 128, 129, 130
 131, 132, 133, 134, 135, 136, 137, 138, 139, 140, 141, 142, 143, 144, 145, 146
 147, 148, 149, 150, 151, 152, 324, 325, 326, 327, 328, 329, 330, 331, 332, 333
 334, 335, 336, 337, 338, 339, 340, 341, 342, 343, 344, 345, 346, 347, 348, 349
 350, 351, 352, 353, 354, 355, 356, 357, 358, 359, 360, 361, 362, 363, 364, 365
 366, 367, 368, 369, 370, 371, 372, 373, 374, 375, 376, 377, 378, 379, 380, 381
 382, 383, 384, 385, 386, 387, 388, 389, 390, 391, 392, 393, 394, 395, 396, 397
 398, 399, 400, 401, 402, 403, 404, 405, 406, 407, 408, 409, 410, 411, 412, 413
 414, 415, 416, 417, 418, 419, 420, 421, 422, 423, 424, 425, 426, 427, 428, 429
 430, 431, 432, 433, 434, 435, 436, 437, 438, 439, 440, 441, 442, 443, 444, 445
 446, 447, 448, 449, 450, 451, 452, 453, 454, 455, 456, 457, 458, 459, 460, 461
 462, 463, 464, 465, 466, 467, 468, 469, 470, 471, 472, 473, 474, 475, 476, 477
 478, 479, 480, 481, 482, 483, 484, 485, 486, 487, 488, 489, 490, 491, 492, 493
 494, 495, 496, 497, 498, 499, 500, 501, 502, 503, 504, 505, 506, 507, 508, 509
 510, 511, 512, 513, 514, 515, 516, 517, 518, 519, 520, 521, 522, 523, 524, 525
** ... 9 like lines cut
*Elset, elset=_PickedSet2_#2, internal, generate
 161,  560,    1
*Nset, nset=_PickedSet2_#3, internal
   1,   2,   3,   4,   9,  10,  11,  12,  13,  14,  15,  16,  17,  18,  19,  20
  21,  22,  23,  24,  25,  26,  27,  28,  29,  30,  31,  32,  33,  34,  35,  36
  37,  38,  39,  40,  41,  42,  43,  44,  45,  46,  47,  48,  49,  50,  51,  52
  53,  54,  55,  56,  57,  58,  59,  60,  61,  62,  63,  64, 196, 197, 198, 199
 200, 201, 202, 203, 204, 205, 206, 207, 208, 209, 210, 211, 212, 213, 214, 215
 216, 217, 218, 219, 220, 221, 222, 223, 224, 225, 226, 227, 228, 229, 230, 231
 232, 233, 234, 235, 236, 237, 238, 239, 240, 241, 242, 243, 244, 245, 246, 247
 248, 249, 250, 251, 252, 253, 254, 255, 256, 257, 258, 259, 260, 261, 262, 263
 264, 265, 266, 267, 268, 269, 270, 271, 272, 273, 274, 275, 276, 277, 278, 279
 280, 281, 282, 283, 284, 285, 286, 287, 288, 289, 290, 291, 292, 293, 294, 295
 296, 297, 298, 299, 300, 301, 302, 303, 304, 305, 306, 307, 308, 309, 310, 311
 312, 313, 314, 315, 316, 317, 318, 319, 320, 321, 322, 323
*Elset, elset=_PickedSet2_#3, internal, generate
   1,  160,    1
** Section: Section-3
*Solid Section, elset=_PickedSet2_#3, material=Material-3
,
** Section: Section-2
*Solid Section, elset=_PickedSet2_#2, material=Material-2
,
** Section: Section-1
*Solid Section, elset=_PickedSet2_#1, material=Material-1
,
*End Part
**  
**
** ASSEMBLY
**
*Assembly, name=Assembly
**  
*Instance, name=Part-4-1, part=Part-4
*End Instance
**  
*Nset, nset=_PickedSet10, internal, instance=Part-4-1
   5,   8, 164, 165, 166, 167, 168, 169, 170, 171, 172, 173, 174, 175, 176, 177
 178, 179, 180, 181, 182, 183, 184, 185, 186, 187, 188, 189, 190, 191, 192, 193
 194, 195
*Elset, elset=_PickedSet10, internal, instance=Part-4-1
 561, 565, 580, 586, 589, 590, 591, 593, 598, 599, 601, 602, 603, 607, 611, 616
 622, 623, 625, 630, 633, 643, 645, 654, 656, 660, 662, 665, 668, 669, 673, 678
 682,
*Nset, nset=_PickedSet11, internal, instance=Part-4-1
   1,   7, 131, 132, 133, 134, 135, 136, 137, 138, 139, 140, 141, 142, 143, 144
 145, 146
*Elset, elset=_PickedSet11, internal, instance=Part-4-1
 162, 181, 284, 286, 291, 292, 294, 295, 356, 358, 359, 360, 369, 372, 373, 375
 377,
*Nset, nset=_PickedSet12, internal, instance=Part-4-1
  3,  4, 56, 57
*Elset, elset=_PickedSet12, internal, instance=Part-4-1
 47, 92, 94
*End Assembly
** 
** MATERIALS
** 
*Material, name=Material-1
*Conductivity
 0.001,
*Material, name=Material-2
*Conductivity
 0.003,
*Material, name=Material-3
*Conductivity
 0.02,
** ----------------------------------------------------------------
** 
** STEP: Step-1
** 
*Step, name=Step-1, nlgeom=NO
*Heat Transfer, steady state, deltmx=0.
1., 1., 1e-05, 1., 
** 
** BOUNDARY CONDITIONS
** 
** Name: BC-1 Type: Temperature
*Boundary
_PickedSet10, 11, 11, 7.5
** Name: BC-2 Type: Temperature
*Boundary
_PickedSet11, 11, 11, 5.5
** Name: BC-3 Type: Temperature
*Boundary
_PickedSet12, 11, 11, 1.
** 
** OUTPUT REQUESTS
** 
*Restart, write, frequency=0
** 
** FIELD OUTPUT: F-Output-1
** 
*Output, field, variable=PRESELECT
*Output, history, frequency=0
*End Step
