*Heading
** Job name: 2024_Ej_5 Model name: Model-1
** Generated by: Abaqus/CAE Learning Edition 2022
*Preprint, echo=NO, model=NO, history=NO, contact=NO
**
** PARTS
**
*Part, name=Portico
*Node
      1,           0.,           0.
      2,           0.,           5.
      3,           0.,           9.
      4,           5.,           9.
      5,           5.,           5.
      6,          2.5,           5.
      7,           0.,          13.
      8,          10.,           9.
      9,          10.,          13.
     10,           5.,          13.
     11,           5.,           0.
     12,          7.5,           5.
     13,          10.,           5.
     14,          10.,           0.
     15,           0.,  0.294117659
     16,           0.,  0.588235319
     17,           0.,  0.882352948
     18,           0.,   1.17647064
     19,           0.,   1.47058821
     20,           0.,    1.7647059
** ... 206 like lines cut
*Element, type=B21
 1,  1, 15
 2, 15, 16
 3, 16, 17
 4, 17, 18
 5, 18, 19
 6, 19, 20
 7, 20, 21
 8, 21, 22
 9, 22, 23
10, 23, 24
11, 24, 25
12, 25, 26
13, 26, 27
14, 27, 28
15, 28, 29
16, 29, 30
17, 30,  2
18,  2, 31
19, 31, 32
20, 32, 33
** ... 209 like lines cut
*Nset, nset=Set-1
   2,   3,   4,   5,   6,   7,   8,   9,  10,  12,  13,  43,  44,  45,  46,  47
  48,  49,  50,  51,  52,  53,  54,  55,  56,  57,  58,  71,  72,  73,  74,  75
  76,  77,  78,  79,  80,  81,  82,  83,  84,  97,  98,  99, 100, 101, 102, 103
 104, 105, 106, 107, 108, 109, 110, 111, 112, 125, 126, 127, 128, 129, 130, 131
 132, 133, 134, 135, 136, 137, 138, 139, 140, 169, 170, 171, 172, 173, 174, 175
 176, 177, 178, 179, 180, 181, 182, 195, 196, 197, 198, 199, 200, 201, 202, 203
 204, 205, 206, 207, 208, 209, 210
*Elset, elset=Set-1
  31,  32,  33,  34,  35,  36,  37,  38,  39,  40,  41,  42,  43,  44,  45,  46
  47,  61,  62,  63,  64,  65,  66,  67,  68,  69,  70,  71,  72,  73,  74,  75
  76,  90,  91,  92,  93,  94,  95,  96,  97,  98,  99, 100, 101, 102, 103, 104
 105, 106, 120, 121, 122, 123, 124, 125, 126, 127, 128, 129, 130, 131, 132, 133
 134, 135, 136, 167, 168, 169, 170, 171, 172, 173, 174, 175, 176, 177, 178, 179
 180, 181, 182, 196, 197, 198, 199, 200, 201, 202, 203, 204, 205, 206, 207, 208
 209, 210, 211, 212
*Nset, nset=Set-2
   1,   2,   3,   4,   5,   7,   8,   9,  10,  11,  13,  14,  15,  16,  17,  18
  19,  20,  21,  22,  23,  24,  25,  26,  27,  28,  29,  30,  31,  32,  33,  34
  35,  36,  37,  38,  39,  40,  41,  42,  59,  60,  61,  62,  63,  64,  65,  66
  67,  68,  69,  70,  85,  86,  87,  88,  89,  90,  91,  92,  93,  94,  95,  96
 113, 114, 115, 116, 117, 118, 119, 120, 121, 122, 123, 124, 141, 142, 143, 144
 145, 146, 147, 148, 149, 150, 151, 152, 153, 154, 155, 156, 157, 158, 159, 160
 161, 162, 163, 164, 165, 166, 167, 168, 183, 184, 185, 186, 187, 188, 189, 190
 191, 192, 193, 194, 211, 212, 213, 214, 215, 216, 217, 218, 219, 220, 221, 222
 223, 224, 225, 226
*Elset, elset=Set-2
   1,   2,   3,   4,   5,   6,   7,   8,   9,  10,  11,  12,  13,  14,  15,  16
  17,  18,  19,  20,  21,  22,  23,  24,  25,  26,  27,  28,  29,  30,  48,  49
  50,  51,  52,  53,  54,  55,  56,  57,  58,  59,  60,  77,  78,  79,  80,  81
  82,  83,  84,  85,  86,  87,  88,  89, 107, 108, 109, 110, 111, 112, 113, 114
 115, 116, 117, 118, 119, 137, 138, 139, 140, 141, 142, 143, 144, 145, 146, 147
 148, 149, 150, 151, 152, 153, 154, 155, 156, 157, 158, 159, 160, 161, 162, 163
 164, 165, 166, 183, 184, 185, 186, 187, 188, 189, 190, 191, 192, 193, 194, 195
 213, 214, 215, 216, 217, 218, 219, 220, 221, 222, 223, 224, 225, 226, 227, 228
 229,
*Nset, nset=Set-3
   4,   5,   8,   9,  10,  11,  13,  14,  59,  60,  61,  62,  63,  64,  65,  66
  67,  68,  69,  70, 113, 114, 115, 116, 117, 118, 119, 120, 121, 122, 123, 124
 141, 142, 143, 144, 145, 146, 147, 148, 149, 150, 151, 152, 153, 154, 155, 156
 157, 158, 159, 160, 161, 162, 163, 164, 165, 166, 167, 168, 183, 184, 185, 186
 187, 188, 189, 190, 191, 192, 193, 194, 211, 212, 213, 214, 215, 216, 217, 218
 219, 220, 221, 222, 223, 224, 225, 226
*Elset, elset=Set-3
  48,  49,  50,  51,  52,  53,  54,  55,  56,  57,  58,  59,  60, 107, 108, 109
 110, 111, 112, 113, 114, 115, 116, 117, 118, 119, 137, 138, 139, 140, 141, 142
 143, 144, 145, 146, 147, 148, 149, 150, 151, 152, 153, 154, 155, 156, 157, 158
 159, 160, 161, 162, 163, 164, 165, 166, 183, 184, 185, 186, 187, 188, 189, 190
 191, 192, 193, 194, 195, 213, 214, 215, 216, 217, 218, 219, 220, 221, 222, 223
 224, 225, 226, 227, 228, 229
*Nset, nset=Set-5, generate
   1,  226,    1
*Elset, elset=Set-5, generate
   1,  229,    1
*Nset, nset=Set-8
   4,   8,  97,  98,  99, 100, 101, 102, 103, 104, 105, 106, 107, 108, 109, 110
 111, 112
*Elset, elset=Set-8, generate
  90,  106,    1
*Nset, nset=Set-10
   4,   8,  97,  98,  99, 100, 101, 102, 103, 104, 105, 106, 107, 108, 109, 110
 111, 112
*Elset, elset=Set-10, generate
  90,  106,    1
** Section: Columna  Profile: Columna
*Beam General Section, elset=Set-2, poisson = 0.3, density=2500., section=RECT
0.6, 0.6
0.,0.,-1.
 2.1e+11, 8.1e+10
** Section: VigaIPN  Profile: IPN
*Beam General Section, elset=Set-1, poisson = 0.3, density=2500., section=I
0.3, 0.6, 0.4, 0.4, 0.03, 0.03, 0.02
0.,0.,-1.
 2.1e+11, 8.1e+10
*End Part
**  
**
** ASSEMBLY
**
*Assembly, name=Assembly
**  
*Instance, name=Portico-1, part=Portico
*End Instance
**  
*Nset, nset=Set-1, instance=Portico-1
  6, 12
*Nset, nset=Set-2, instance=Portico-1
  2,  3, 31, 32, 33, 34, 35, 36, 37, 38, 39, 40, 41, 42
*Elset, elset=Set-2, instance=Portico-1, generate
 18,  30,   1
*Nset, nset=Set-3, instance=Portico-1
   7,   9,  10, 125, 126, 127, 128, 129, 130, 131, 132, 133, 134, 135, 136, 137
 138, 139, 140, 195, 196, 197, 198, 199, 200, 201, 202, 203, 204, 205, 206, 207
 208, 209, 210
*Elset, elset=Set-3, instance=Portico-1
 120, 121, 122, 123, 124, 125, 126, 127, 128, 129, 130, 131, 132, 133, 134, 135
 136, 196, 197, 198, 199, 200, 201, 202, 203, 204, 205, 206, 207, 208, 209, 210
 211, 212
*Nset, nset=Set-4, instance=Portico-1
 11, 14
*Nset, nset=Set-5, instance=Portico-1
 1,
*End Assembly
** 
** MATERIALS
** 
*Material, name=Material-1
*Density
2500.,
*Elastic
 2.1e+11, 0.3
** ----------------------------------------------------------------
** 
** STEP: Step-1
** 
*Step, name=Step-1, nlgeom=NO
*Static
1., 1., 1e-05, 1.
** 
** BOUNDARY CONDITIONS
** 
** Name: BC-1 Type: Displacement/Rotation
*Boundary
Set-4, 2, 2
** Name: BC-2 Type: Displacement/Rotation
*Boundary
Set-5, 1, 1
Set-5, 2, 2
** 
** LOADS
** 
** Name: Load-1   Type: Concentrated force
*Cload
Set-1, 2, -500.
** Name: Load-2   Type: Line load
*Dload
Set-2, PX, 10000.
** Name: Load-3   Type: Line load Using Field: AnalyticalField-1
*Dload
Portico-1.120, PY, -10294.1
Portico-1.121, PY, -10882.4
Portico-1.122, PY, -11470.6
Portico-1.123, PY, -12058.8
Portico-1.124, PY, -12647.1
Portico-1.125, PY, -13235.3
Portico-1.126, PY, -13823.5
Portico-1.127, PY, -14411.8
Portico-1.128, PY, -15000.
Portico-1.129, PY, -15588.2
Portico-1.130, PY, -16176.5
Portico-1.131, PY, -16764.7
Portico-1.132, PY, -17352.9
Portico-1.133, PY, -17941.2
Portico-1.134, PY, -18529.4
Portico-1.135, PY, -19117.6
Portico-1.136, PY, -19705.9
Portico-1.196, PY, -294.118
Portico-1.197, PY, -882.353
Portico-1.198, PY, -1470.59
** ... 14 like lines cut
** 
** OUTPUT REQUESTS
** 
*Restart, write, frequency=0
** 
** FIELD OUTPUT: F-Output-1
** 
*Output, field
*Node Output
CF, RF, RM, U, UR
*Element Output, directions=YES
NFORCSO, S, SF
** 
** HISTORY OUTPUT: H-Output-1
** 
*Output, history, variable=PRESELECT
*End Step
