*Heading
** Job name: P5A-10-H Model name: Model-1
** Generated by: Abaqus/CAE Learning Edition 2022
*Preprint, echo=NO, model=NO, history=NO, contact=NO
**
** PARTS
**
*Part, name=Part-1
*Node
      1,           0.,           0.,          10.
      2,           0.,   1.25333238,   9.92114735
      3,           0.,    2.4868989,   9.68583202
      4,           0.,   3.68124557,   9.29776478
      5,           0.,   4.81753683,   8.76306725
      6,           0.,   5.87785244,   8.09016991
      7,           0.,   6.84547091,    7.2896862
      8,           0.,   7.70513248,   6.37423992
      9,           0.,   8.44327927,   5.35826778
     10,           0.,   9.04827023,   4.25779295
     11,           0.,    9.5105648,   3.09016991
     12,   1.56434464,           0.,   9.87688351
     13,   1.52630496,   1.26063442,   9.80210114
     14,   1.46942163,   2.51165652,   9.56725597
     15,   1.39405155,   3.72646451,   9.17442513
     16,   1.30122817,   4.87962914,   8.63110828
     17,   1.19254124,   5.94846249,   7.94944286
     18,   1.06996071,   6.91409063,   7.14496565
     19,  0.935645819,   7.76190853,   6.23516989
     20,  0.791771472,   8.48143673,   5.23816109
** ... 222 like lines cut
*Element, type=C3D8H
  1, 122, 123, 134, 133,   1,   2,  13,  12
  2, 123, 124, 135, 134,   2,   3,  14,  13
  3, 124, 125, 136, 135,   3,   4,  15,  14
  4, 125, 126, 137, 136,   4,   5,  16,  15
  5, 126, 127, 138, 137,   5,   6,  17,  16
  6, 127, 128, 139, 138,   6,   7,  18,  17
  7, 128, 129, 140, 139,   7,   8,  19,  18
  8, 129, 130, 141, 140,   8,   9,  20,  19
  9, 130, 131, 142, 141,   9,  10,  21,  20
 10, 131, 132, 143, 142,  10,  11,  22,  21
 11, 133, 134, 145, 144,  12,  13,  24,  23
 12, 134, 135, 146, 145,  13,  14,  25,  24
 13, 135, 136, 147, 146,  14,  15,  26,  25
 14, 136, 137, 148, 147,  15,  16,  27,  26
 15, 137, 138, 149, 148,  16,  17,  28,  27
 16, 138, 139, 150, 149,  17,  18,  29,  28
 17, 139, 140, 151, 150,  18,  19,  30,  29
 18, 140, 141, 152, 151,  19,  20,  31,  30
 19, 141, 142, 153, 152,  20,  21,  32,  31
 20, 142, 143, 154, 153,  21,  22,  33,  32
** ... 80 like lines cut
*Nset, nset=_PickedSet2, internal, generate
   1,  242,    1
*Elset, elset=_PickedSet2, internal, generate
   1,  100,    1
** Section: Section-1
*Solid Section, elset=_PickedSet2, material=Material-1
,
*End Part
**  
**
** ASSEMBLY
**
*Assembly, name=Assembly
**  
*Instance, name=Part-1-1, part=Part-1
*End Instance
**  
*Nset, nset=_PickedSet4, internal, instance=Part-1-1
   1,   2,   3,   4,   5,   6,   7,   8,   9,  10,  11, 122, 123, 124, 125, 126
 127, 128, 129, 130, 131, 132
*Elset, elset=_PickedSet4, internal, instance=Part-1-1, generate
  1,  10,   1
*Nset, nset=_PickedSet5, internal, instance=Part-1-1
 111, 112, 113, 114, 115, 116, 117, 118, 119, 120, 121, 232, 233, 234, 235, 236
 237, 238, 239, 240, 241, 242
*Elset, elset=_PickedSet5, internal, instance=Part-1-1, generate
  91,  100,    1
*Nset, nset=_PickedSet6, internal, instance=Part-1-1
 232,
*Nset, nset=_PickedSet7, internal, instance=Part-1-1
 122,
*End Assembly
** 
** MATERIALS
** 
*Material, name=Material-1
*Elastic
 6.825e+07, 0.3
** ----------------------------------------------------------------
** 
** STEP: Step-1
** 
*Step, name=Step-1, nlgeom=NO
*Static
1., 1., 1e-05, 1.
** 
** BOUNDARY CONDITIONS
** 
** Name: BC-1 Type: Symmetry/Antisymmetry/Encastre
*Boundary
_PickedSet4, XSYMM
** Name: BC-2 Type: Symmetry/Antisymmetry/Encastre
*Boundary
_PickedSet5, ZSYMM
** 
** LOADS
** 
** Name: Load-1   Type: Concentrated force
*Cload
_PickedSet6, 1, 1.
** Name: Load-2   Type: Concentrated force
*Cload
_PickedSet7, 3, -1.
** 
** OUTPUT REQUESTS
** 
*Restart, write, frequency=0
** 
** FIELD OUTPUT: F-Output-1
** 
*Output, field, variable=PRESELECT
** 
** HISTORY OUTPUT: H-Output-1
** 
*Output, history, variable=PRESELECT
*End Step
