*Heading
** Job name: P5A-20-H Model name: Model-1
** Generated by: Abaqus/CAE Learning Edition 2022
*Preprint, echo=NO, model=NO, history=NO, contact=NO
**
** PARTS
**
*Part, name=Part-1
*Node
      1,           0.,           0.,          10.
      2,           0.,   0.62790519,   9.98026752
      3,           0.,   1.25333238,   9.92114735
      4,           0.,   1.87381315,   9.82287216
      5,           0.,    2.4868989,   9.68583202
      6,           0.,   3.09016991,    9.5105648
      7,           0.,   3.68124557,   9.29776478
      8,           0.,   4.25779295,   9.04827023
      9,           0.,   4.81753683,   8.76306725
     10,           0.,   5.35826778,   8.44327927
     11,           0.,   5.87785244,   8.09016991
     12,           0.,   6.37423992,   7.70513248
     13,           0.,   6.84547091,    7.2896862
     14,           0.,    7.2896862,   6.84547091
     15,           0.,   7.70513248,   6.37423992
     16,           0.,   8.09016991,   5.87785244
     17,           0.,   8.44327927,   5.35826778
     18,           0.,   8.76306725,   4.81753683
     19,           0.,   9.04827023,   4.25779295
     20,           0.,   9.29776478,   3.68124557
** ... 862 like lines cut
*Element, type=C3D8H
  1, 442, 443, 464, 463,   1,   2,  23,  22
  2, 443, 444, 465, 464,   2,   3,  24,  23
  3, 444, 445, 466, 465,   3,   4,  25,  24
  4, 445, 446, 467, 466,   4,   5,  26,  25
  5, 446, 447, 468, 467,   5,   6,  27,  26
  6, 447, 448, 469, 468,   6,   7,  28,  27
  7, 448, 449, 470, 469,   7,   8,  29,  28
  8, 449, 450, 471, 470,   8,   9,  30,  29
  9, 450, 451, 472, 471,   9,  10,  31,  30
 10, 451, 452, 473, 472,  10,  11,  32,  31
 11, 452, 453, 474, 473,  11,  12,  33,  32
 12, 453, 454, 475, 474,  12,  13,  34,  33
 13, 454, 455, 476, 475,  13,  14,  35,  34
 14, 455, 456, 477, 476,  14,  15,  36,  35
 15, 456, 457, 478, 477,  15,  16,  37,  36
 16, 457, 458, 479, 478,  16,  17,  38,  37
 17, 458, 459, 480, 479,  17,  18,  39,  38
 18, 459, 460, 481, 480,  18,  19,  40,  39
 19, 460, 461, 482, 481,  19,  20,  41,  40
 20, 461, 462, 483, 482,  20,  21,  42,  41
** ... 380 like lines cut
*Nset, nset=_PickedSet2, internal, generate
   1,  882,    1
*Elset, elset=_PickedSet2, internal, generate
   1,  400,    1
** Section: Section-1
*Solid Section, elset=_PickedSet2, material=Material-1
,
*End Part
**  
**
** ASSEMBLY
**
*Assembly, name=Assembly
**  
*Instance, name=Part-1-1, part=Part-1
*End Instance
**  
*Nset, nset=_PickedSet4, internal, instance=Part-1-1
   1,   2,   3,   4,   5,   6,   7,   8,   9,  10,  11,  12,  13,  14,  15,  16
  17,  18,  19,  20,  21, 442, 443, 444, 445, 446, 447, 448, 449, 450, 451, 452
 453, 454, 455, 456, 457, 458, 459, 460, 461, 462
*Elset, elset=_PickedSet4, internal, instance=Part-1-1, generate
  1,  20,   1
*Nset, nset=_PickedSet5, internal, instance=Part-1-1
 421, 422, 423, 424, 425, 426, 427, 428, 429, 430, 431, 432, 433, 434, 435, 436
 437, 438, 439, 440, 441, 862, 863, 864, 865, 866, 867, 868, 869, 870, 871, 872
 873, 874, 875, 876, 877, 878, 879, 880, 881, 882
*Elset, elset=_PickedSet5, internal, instance=Part-1-1, generate
 381,  400,    1
*Nset, nset=_PickedSet6, internal, instance=Part-1-1
 862,
*Nset, nset=_PickedSet7, internal, instance=Part-1-1
 442,
*End Assembly
** 
** MATERIALS
** 
*Material, name=Material-1
*Elastic
 6.825e+07, 0.3
** ----------------------------------------------------------------
** 
** STEP: Step-1
** 
*Step, name=Step-1, nlgeom=NO
*Static
1., 1., 1e-05, 1.
** 
** BOUNDARY CONDITIONS
** 
** Name: BC-1 Type: Symmetry/Antisymmetry/Encastre
*Boundary
_PickedSet4, XSYMM
** Name: BC-2 Type: Symmetry/Antisymmetry/Encastre
*Boundary
_PickedSet5, ZSYMM
** 
** LOADS
** 
** Name: Load-1   Type: Concentrated force
*Cload
_PickedSet6, 1, 1.
** Name: Load-2   Type: Concentrated force
*Cload
_PickedSet7, 3, -1.
** 
** OUTPUT REQUESTS
** 
*Restart, write, frequency=0
** 
** FIELD OUTPUT: F-Output-1
** 
*Output, field, variable=PRESELECT
** 
** HISTORY OUTPUT: H-Output-1
** 
*Output, history, variable=PRESELECT
*End Step
