*Heading
** Job name: PesoPropio Model name: Model-1
** Generated by: Abaqus/CAE Student Edition 2021
*Preprint, echo=NO, model=NO, history=NO, contact=NO
**
** PARTS
**
*Part, name=Part-1
*Node
      1,           9.,          16.
      2,          14.,          16.
      3,          18.,          16.
      4,          18.,          13.
      5,          18.,          10.
      6,          18.,           7.
      7,          18.,           4.
      8,          14.,           4.
      9,          14.,           0.
     10,           9.,          13.
     11,           4.,          16.
     12,           4.,          13.
     13,           0.,          13.
     14,           0.,          16.
     15,          14.,          13.
     16,          14.,          10.
     17,          14.,           7.
     18,          18.,           0.
     19,           9.,           4.
     20,           9.,          10.
** ... 305 like lines cut
*Element, type=B21
 1,  1, 31
 2, 31, 32
 3, 32, 33
 4, 33, 34
 5, 34, 35
 6, 35, 36
 7, 36, 37
 8, 37, 38
 9, 38, 39
10, 39,  2
11,  2, 40
12, 40, 41
13, 41, 42
14, 42, 43
15, 43, 44
16, 44, 45
17, 45, 46
18, 46,  3
19, 47,  3
20, 48, 47
** ... 320 like lines cut
*Nset, nset=pisos40x40
   5,   6,   7,   8,   9,  16,  17,  18,  19,  20,  21,  22,  23,  24,  25,  26
  27,  28,  29,  30,  57,  58,  59,  60,  61,  62,  63,  64,  65,  66,  74,  75
  76,  77,  78,  79,  80, 138, 139, 140, 141, 142, 143, 144, 145, 146, 147, 155
 156, 157, 158, 159, 160, 161, 199, 200, 201, 202, 203, 225, 226, 227, 228, 229
 251, 252, 253, 254, 255, 256, 257, 258, 259, 260, 261, 262, 281, 282, 283, 284
 285, 286, 287, 288, 289, 290, 300, 301, 302, 303, 304, 305, 306, 307, 308, 309
 310, 311, 312, 313, 314, 315, 316, 317, 318
*Elset, elset=pisos40x40
  31,  32,  33,  34,  35,  36,  37,  38,  39,  40,  41,  42,  51,  52,  53,  54
  55,  56,  57,  58, 125, 126, 127, 128, 129, 130, 131, 132, 133, 134, 135, 136
 145, 146, 147, 148, 149, 150, 151, 152, 195, 196, 197, 198, 199, 200, 225, 226
 227, 228, 229, 230, 255, 256, 257, 258, 259, 260, 261, 262, 263, 264, 265, 266
 267, 268, 289, 290, 291, 292, 293, 294, 295, 296, 297, 298, 299, 300, 311, 312
 313, 314, 315, 316, 317, 318, 319, 320, 321, 322, 323, 324, 325, 326, 327, 328
 329, 330, 331, 332
*Nset, nset=Set-2
   1,   2,   3,   4,   5,  10,  11,  12,  13,  14,  15,  16,  20,  22,  23,  47
  48,  49,  50,  51,  52,  53,  54,  55,  56,  81,  82,  83,  84,  85,  95,  96
  97,  98,  99, 107, 108, 109, 110, 111, 119, 120, 121, 122, 123, 171, 172, 173
 174, 175, 185, 186, 187, 188, 189, 213, 214, 215, 216, 217, 246, 247, 248, 249
 250,
*Elset, elset=Set-2
  19,  20,  21,  22,  23,  24,  25,  26,  27,  28,  29,  30,  59,  60,  61,  62
  63,  64,  75,  76,  77,  78,  79,  80,  89,  90,  91,  92,  93,  94, 103, 104
 105, 106, 107, 108, 163, 164, 165, 166, 167, 168, 179, 180, 181, 182, 183, 184
 211, 212, 213, 214, 215, 216, 249, 250, 251, 252, 253, 254
*Nset, nset=Set-3
   1,   2,   3,   4,   5,   6,   7,   8,  10,  11,  12,  13,  14,  15,  16,  17
  19,  20,  21,  22,  23,  24,  25,  27,  28,  31,  32,  33,  34,  35,  36,  37
  38,  39,  40,  41,  42,  43,  44,  45,  46,  67,  68,  69,  70,  71,  72,  73
  86,  87,  88,  89,  90,  91,  92,  93,  94, 100, 101, 102, 103, 104, 105, 106
 112, 113, 114, 115, 116, 117, 118, 124, 125, 126, 127, 128, 129, 130, 131, 132
 133, 134, 135, 136, 137, 148, 149, 150, 151, 152, 153, 154, 162, 163, 164, 165
 166, 167, 168, 169, 170, 176, 177, 178, 179, 180, 181, 182, 183, 184, 190, 191
 192, 193, 194, 195, 196, 197, 198, 204, 205, 206, 207, 208, 209, 210, 211, 212
 218, 219, 220, 221, 222, 223, 224, 230, 231, 232, 233, 234, 235, 236, 237, 238
 239, 240, 241, 242, 243, 244, 245, 263, 264, 265, 266, 267, 268, 269, 270, 271
 272, 273, 274, 275, 276, 277, 278, 279, 280, 291, 292, 293, 294, 295, 296, 297
 298, 299, 319, 320, 321, 322, 323, 324, 325
*Elset, elset=Set-3
   1,   2,   3,   4,   5,   6,   7,   8,   9,  10,  11,  12,  13,  14,  15,  16
  17,  18,  43,  44,  45,  46,  47,  48,  49,  50,  65,  66,  67,  68,  69,  70
  71,  72,  73,  74,  81,  82,  83,  84,  85,  86,  87,  88,  95,  96,  97,  98
  99, 100, 101, 102, 109, 110, 111, 112, 113, 114, 115, 116, 117, 118, 119, 120
 121, 122, 123, 124, 137, 138, 139, 140, 141, 142, 143, 144, 153, 154, 155, 156
 157, 158, 159, 160, 161, 162, 169, 170, 171, 172, 173, 174, 175, 176, 177, 178
 185, 186, 187, 188, 189, 190, 191, 192, 193, 194, 201, 202, 203, 204, 205, 206
 207, 208, 209, 210, 217, 218, 219, 220, 221, 222, 223, 224, 231, 232, 233, 234
 235, 236, 237, 238, 239, 240, 241, 242, 243, 244, 245, 246, 247, 248, 269, 270
 271, 272, 273, 274, 275, 276, 277, 278, 279, 280, 281, 282, 283, 284, 285, 286
 287, 288, 301, 302, 303, 304, 305, 306, 307, 308, 309, 310, 333, 334, 335, 336
 337, 338, 339, 340
*Nset, nset=Set-4
   2,   3,   4,   5,   6,   7,   8,  10,  11,  12,  13,  15,  16,  17,  19,  20
  21,  22,  25,  27,  28,  47,  48,  49,  50,  51,  52,  53,  54,  55,  56,  57
  58,  59,  60,  61,  62,  63,  64,  65,  66,  67,  68,  69,  70,  71,  72,  73
  95,  96,  97,  98,  99, 100, 101, 102, 103, 104, 105, 106, 119, 120, 121, 122
 123, 124, 125, 126, 127, 128, 129, 130, 138, 139, 140, 141, 142, 143, 144, 145
 146, 147, 162, 163, 164, 165, 166, 167, 168, 169, 170, 171, 172, 173, 174, 175
 176, 177, 178, 179, 180, 181, 182, 183, 184, 185, 186, 187, 188, 189, 199, 200
 201, 202, 203, 251, 252, 253, 254, 255, 263, 264, 265, 266, 267, 268, 269, 270
 271, 281, 282, 283, 284, 285, 286, 287, 288, 289, 290, 291, 292, 293, 294, 295
 296, 297, 298, 299, 319, 320, 321, 322, 323, 324, 325
*Elset, elset=Set-4
  19,  20,  21,  22,  23,  24,  25,  26,  27,  28,  29,  30,  31,  32,  33,  34
  35,  36,  37,  38,  39,  40,  41,  42,  43,  44,  45,  46,  47,  48,  49,  50
  75,  76,  77,  78,  79,  80,  81,  82,  83,  84,  85,  86,  87,  88, 103, 104
 105, 106, 107, 108, 109, 110, 111, 112, 113, 114, 115, 116, 125, 126, 127, 128
 129, 130, 131, 132, 133, 134, 135, 136, 153, 154, 155, 156, 157, 158, 159, 160
 161, 162, 163, 164, 165, 166, 167, 168, 169, 170, 171, 172, 173, 174, 175, 176
 177, 178, 179, 180, 181, 182, 183, 184, 195, 196, 197, 198, 199, 200, 255, 256
 257, 258, 259, 260, 269, 270, 271, 272, 273, 274, 275, 276, 277, 278, 289, 290
 291, 292, 293, 294, 295, 296, 297, 298, 299, 300, 301, 302, 303, 304, 305, 306
 307, 308, 309, 310, 333, 334, 335, 336, 337, 338, 339, 340
*Nset, nset=Set-6
  1, 10, 81, 82, 83, 84, 85
*Elset, elset=Set-6, generate
 59,  64,   1
*Nset, nset=Set-8
  12,  22, 213, 214, 215, 216, 217
*Elset, elset=Set-8, generate
 211,  216,    1
*Nset, nset=Set-10, generate
   1,  325,    1
*Elset, elset=Set-10, generate
   1,  340,    1
** Section: sect70x30  Profile: Profile-3
*Beam General Section, elset=Set-3, poisson = 0.25, density=2500., section=RECT
0.7, 0.3
0.,0.,-1.
 3e+10, 1.2e+10
** Section: Sect30x30  Profile: Profile-1
*Beam General Section, elset=Set-2, poisson = 0.25, density=2500., section=RECT
0.4, 0.4
0.,0.,-1.
 3e+10, 1.2e+10
** Section: sect40x40  Profile: Profile-1
*Beam General Section, elset=pisos40x40, poisson = 0.25, density=2500., section=RECT
0.4, 0.4
0.,0.,-1.
 3e+10, 1.2e+10
*End Part
**  
**
** ASSEMBLY
**
*Assembly, name=Assembly
**  
*Instance, name=Part-1-1, part=Part-1
*End Instance
**  
*Nset, nset=Set-1, instance=Part-1-1
  9, 18, 26, 29, 30
*Nset, nset=Set-2, instance=Part-1-1, generate
   1,  325,    1
*Elset, elset=Set-2, instance=Part-1-1, generate
   1,  340,    1
*Nset, nset=Set-3, instance=Part-1-1
  3, 11
*Nset, nset=Set-4, instance=Part-1-1, generate
   1,  325,    1
*Elset, elset=Set-4, instance=Part-1-1, generate
   1,  340,    1
*Nset, nset=Set-5, instance=Part-1-1
  13,  14,  23,  24,  28,  29, 107, 108, 109, 110, 111, 225, 226, 227, 228, 229
 246, 247, 248, 249, 250, 300, 301, 302, 303, 304, 305, 306, 307, 308, 309, 310
 311,
*Elset, elset=Set-5, instance=Part-1-1
  89,  90,  91,  92,  93,  94, 225, 226, 227, 228, 229, 230, 249, 250, 251, 252
 253, 254, 311, 312, 313, 314, 315, 316, 317, 318, 319, 320, 321, 322, 323, 324
*Elset, elset=_Surf-1_SPOS, internal, instance=Part-1-1
  89,  90,  91,  92,  93,  94, 225, 226, 227, 228, 229, 230, 249, 250, 251, 252
 253, 254, 311, 312, 313, 314, 315, 316, 317, 318, 319, 320, 321, 322, 323, 324
*Surface, type=ELEMENT, name=Surf-1
_Surf-1_SPOS, SPOS
*Elset, elset=_Surf-2_SPOS, internal, instance=Part-1-1
  89,  90,  91,  92,  93,  94, 225, 226, 227, 228, 229, 230, 249, 250, 251, 252
 253, 254, 311, 312, 313, 314, 315, 316, 317, 318, 319, 320, 321, 322, 323, 324
*Surface, type=ELEMENT, name=Surf-2
_Surf-2_SPOS, SPOS
*End Assembly
** 
** MATERIALS
** 
*Material, name=Material-1
*Density
2500.,
*Elastic
 3e+10, 0.25
** ----------------------------------------------------------------
** 
** STEP: Step-1
** 
*Step, name=Step-1, nlgeom=NO
*Static
1., 1., 1e-05, 1.
** 
** BOUNDARY CONDITIONS
** 
** Name: BC-1 Type: Displacement/Rotation
*Boundary
Set-1, 1, 1
Set-1, 2, 2
Set-1, 6, 6
** 
** LOADS
** 
** Name: Load-1   Type: Gravity
*Dload
, GRAV, 9.8, 0., -1.
** Name: Viento   Type: Line load Using Field: AnalyticalField-1
*Dload
Part-1-1.89, PX, 93985.8
Part-1-1.90, PX, 95742.7
Part-1-1.91, PX, 97467.9
Part-1-1.92, PX, 99163.2
Part-1-1.93, PX, 100830.
Part-1-1.94, PX, 102470.
Part-1-1.225, PX, 69522.2
Part-1-1.226, PX, 71879.5
Part-1-1.227, PX, 74162.
Part-1-1.228, PX, 76376.3
Part-1-1.229, PX, 78528.1
Part-1-1.230, PX, 80622.6
Part-1-1.249, PX, 82664.
Part-1-1.250, PX, 84656.2
Part-1-1.251, PX, 86602.5
Part-1-1.252, PX, 88506.1
Part-1-1.253, PX, 90369.6
Part-1-1.254, PX, 92195.4
Part-1-1.311, PX, 53229.1
Part-1-1.312, PX, 56273.1
** ... 12 like lines cut
** 
** OUTPUT REQUESTS
** 
*Restart, write, frequency=0
** 
** FIELD OUTPUT: F-Output-1
** 
*Output, field
*Node Output
CF, RF, RM, U, UR
*Element Output, directions=YES
MISES, NFORCSO, S, SF
** 
** HISTORY OUTPUT: H-Output-1
** 
*Output, history, variable=PRESELECT
*End Step
