*Heading
** Job name: Job-ejer3 Model name: Model-1
** Generated by: Abaqus/CAE Learning Edition 2022
*Preprint, echo=NO, model=NO, history=NO, contact=NO
**
** PARTS
**
*Part, name=Part-1
*Node
      1,   6.08761406,   7.93353319
      2,          10.,           0.
      3,   18.5714283,           0.
      4,   12.5121441,   15.9167423
      5,          70.,           0.
      6,          70.,    20.416666
      7,          70.,          35.
      8,    15.217391,          35.
      9,           0.,          35.
     10,           0.,       19.375
     11,           0.,          10.
     12,   7.07106781,   7.07106781
     13,   7.93353319,   6.08761406
     14,   8.66025448,           5.
     15,   9.23879528,   3.82683444
     16,   9.65925789,   2.58819056
     17,   9.91444874,   1.30526197
     18,   12.8571424,           0.
     19,   15.7142859,           0.
     20,   17.9229851,   1.94440949
** ... 296 like lines cut
*Element, type=CPS3
  1,   1,  12, 111
  2, 111,  27,   1
  3,  12,  13, 111
  4,  13, 112, 111
  5,  13,  14, 112
  6,  14, 113, 112
  7,  14,  15, 113
  8,  15, 114, 113
  9,  15,  16, 114
 10,  16, 115, 114
 11,  16,  17, 115
 12,  17, 116, 115
 13,  17,   2, 116
 14,   2,  18, 116
 15,  27, 111, 117
 16, 117,  26,  27
 17, 111, 112, 118
 18, 118, 117, 111
 19, 112, 113, 118
 20, 113, 119, 118
** ... 534 like lines cut
*Nset, nset=Set-1, generate
   1,  316,    1
*Elset, elset=Set-1, generate
   1,  554,    1
** Section: Section-1
*Solid Section, elset=Set-1, material=lámina
5.,
*End Part
**  
**
** ASSEMBLY
**
*Assembly, name=Assembly
**  
*Instance, name=Part-1-1, part=Part-1
*End Instance
**  
*Nset, nset=Inferior, instance=Part-1-1
  2,  3,  5, 18, 19, 28, 29, 30, 31, 32, 33, 34, 35, 36, 37, 38
 39, 40, 41, 42, 43, 44
*Elset, elset=Inferior, instance=Part-1-1
 14, 28, 42, 43, 45, 47, 49, 51, 53, 55, 57, 59, 61, 63, 65, 67
 69, 71, 73, 75, 77
*Nset, nset=Izquierda, instance=Part-1-1
   9,  10,  11,  97,  98,  99, 100, 105, 106
*Elset, elset=Izquierda, instance=Part-1-1
 483, 493, 503, 513, 523, 525, 527, 529
*Elset, elset=_Surf-1_S2, internal, instance=Part-1-1
 77,
*Elset, elset=_Surf-1_S1, internal, instance=Part-1-1
 114, 150, 186, 222, 258, 294, 295, 297, 299, 301, 303
*Surface, type=ELEMENT, name=Surf-1
_Surf-1_S2, S2
_Surf-1_S1, S1
*Elset, elset=_Surf-2_S2, internal, instance=Part-1-1
 77,
*Elset, elset=_Surf-2_S1, internal, instance=Part-1-1
 114, 150, 186, 222, 258, 294, 295, 297, 299, 301, 303
*Surface, type=ELEMENT, name=Surf-2
_Surf-2_S2, S2
_Surf-2_S1, S1
*End Assembly
** 
** MATERIALS
** 
*Material, name=lámina
*Elastic
70000., 0.33
** ----------------------------------------------------------------
** 
** STEP: Cargas
** 
*Step, name=Cargas, nlgeom=NO
*Static
1., 1., 1e-05, 1.
** 
** BOUNDARY CONDITIONS
** 
** Name: BC-1 Type: Displacement/Rotation
*Boundary
Izquierda, 1, 1
** Name: BC-2 Type: Displacement/Rotation
*Boundary
Inferior, 2, 2
** 
** LOADS
** 
** Name: Load-2   Type: Pressure
*Dsload
Surf-2, P, -50.
** 
** OUTPUT REQUESTS
** 
*Restart, write, frequency=0
** 
** FIELD OUTPUT: F-Output-1
** 
*Output, field, variable=PRESELECT
** 
** HISTORY OUTPUT: Inf
** 
*Output, history
*Node Output, nset=Inferior
RT, 
** 
** HISTORY OUTPUT: Izq
** 
*Node Output, nset=Izquierda
RT, 
*End Step
