*Heading
** Job name: C3D8 Model name: Model-1
** Generated by: Abaqus/CAE Learning Edition 2022
*Preprint, echo=NO, model=NO, history=NO, contact=NO
**
** PARTS
**
*Part, name=Part-1
*Node
      1,   15.9893417,   19.0553551,          25.
      2,   15.1429405,   19.7346649,          25.
      3,   14.2677135,   20.3764076,          25.
      4,   13.3653278,   20.9793625,          25.
      5,      12.4375,   21.5423813,          25.
      6,   11.4859972,    22.064394,          25.
      7,   10.5126295,   22.5444069,          25.
      8,   9.51924992,   22.9815025,          25.
      9,   8.50775146,   23.3748531,          25.
     10,   7.48005676,   23.7237091,          25.
     11,    6.4381237,   24.0274048,          25.
     12,   5.38393545,   24.2853622,          25.
     13,   4.31949854,   24.4970932,          25.
     14,   3.24683905,   24.6621914,          25.
     15,   2.16799903,    24.780344,          25.
     16,   1.08503222,   24.8513241,          25.
     17,           0.,       24.875,          25.
     18,   15.9893417,   19.0553551,      23.4375
     19,   15.1429405,   19.7346649,      23.4375
     20,   14.2677135,   20.3764076,      23.4375
** ... 558 like lines cut
*Element, type=C3D8
  1, 290, 291, 308, 307,   1,   2,  19,  18
  2, 291, 292, 309, 308,   2,   3,  20,  19
  3, 292, 293, 310, 309,   3,   4,  21,  20
  4, 293, 294, 311, 310,   4,   5,  22,  21
  5, 294, 295, 312, 311,   5,   6,  23,  22
  6, 295, 296, 313, 312,   6,   7,  24,  23
  7, 296, 297, 314, 313,   7,   8,  25,  24
  8, 297, 298, 315, 314,   8,   9,  26,  25
  9, 298, 299, 316, 315,   9,  10,  27,  26
 10, 299, 300, 317, 316,  10,  11,  28,  27
 11, 300, 301, 318, 317,  11,  12,  29,  28
 12, 301, 302, 319, 318,  12,  13,  30,  29
 13, 302, 303, 320, 319,  13,  14,  31,  30
 14, 303, 304, 321, 320,  14,  15,  32,  31
 15, 304, 305, 322, 321,  15,  16,  33,  32
 16, 305, 306, 323, 322,  16,  17,  34,  33
 17, 307, 308, 325, 324,  18,  19,  36,  35
 18, 308, 309, 326, 325,  19,  20,  37,  36
 19, 309, 310, 327, 326,  20,  21,  38,  37
 20, 310, 311, 328, 327,  21,  22,  39,  38
** ... 236 like lines cut
*Nset, nset=Set-1, generate
   1,  578,    1
*Elset, elset=Set-1, generate
   1,  256,    1
** Section: Section-1
*Solid Section, elset=Set-1, material=Material-1
,
*End Part
**  
**
** ASSEMBLY
**
*Assembly, name=Assembly
**  
*Instance, name=Part-1-1, part=Part-1
*End Instance
**  
*Nset, nset=Set-1, instance=Part-1-1, generate
   1,  578,    1
*Elset, elset=Set-1, instance=Part-1-1, generate
   1,  256,    1
*Nset, nset=Set-2, instance=Part-1-1, generate
  1,  17,   1
*Elset, elset=Set-2, instance=Part-1-1, generate
  1,  16,   1
*Nset, nset=Set-3, instance=Part-1-1, generate
  17,  578,   17
*Elset, elset=Set-3, instance=Part-1-1, generate
  16,  256,   16
*Nset, nset=Set-4, instance=Part-1-1
 273, 274, 275, 276, 277, 278, 279, 280, 281, 282, 283, 284, 285, 286, 287, 288
 289, 562, 563, 564, 565, 566, 567, 568, 569, 570, 571, 572, 573, 574, 575, 576
 577, 578
*Elset, elset=Set-4, instance=Part-1-1, generate
 241,  256,    1
*End Assembly
** 
** MATERIALS
** 
*Material, name=Material-1
*Elastic
 4.32e+08,0.
** ----------------------------------------------------------------
** 
** STEP: Step-1
** 
*Step, name=Step-1, nlgeom=NO
*Static
1., 1., 1e-05, 1.
** 
** BOUNDARY CONDITIONS
** 
** Name: BC-1 Type: Displacement/Rotation
*Boundary
Set-2, 1, 1
Set-2, 2, 2
** Name: BC-2 Type: Displacement/Rotation
*Boundary
Set-3, 1, 1
** Name: BC-3 Type: Displacement/Rotation
*Boundary
Set-4, 3, 3
** 
** LOADS
** 
** Name: Load-1   Type: Body force
*Dload
Set-1, BY, -360.
** 
** OUTPUT REQUESTS
** 
*Restart, write, frequency=0
** 
** FIELD OUTPUT: F-Output-1
** 
*Output, field, variable=PRESELECT
** 
** HISTORY OUTPUT: H-Output-1
** 
*Output, history, variable=PRESELECT
*End Step
