*Heading
** Job name: 2024_finXord_ej1 Model name: Model-1
** Generated by: Abaqus/CAE Learning Edition 2022
*Preprint, echo=NO, model=NO, history=NO, contact=NO
**
** PARTS
**
*Part, name=Part-1
*Node
      1,   1.14833081,   7.07918692
      2,   1.58232236,   8.07833576
      3,   1.89715481,   8.52435207
      4,   2.69327879,   9.26787949
      5,   3.66048145,   9.76904392
      6,   4.72703028,   9.99067497
      7,   5.27296972,   9.99067497
      8,   6.33951855,   9.76904392
      9,   7.30672121,   9.26787949
     10,   8.10284519,   8.52435207
     11,   8.41767788,   8.07833576
     12,   8.85166931,   7.07918692
     13,           1.,           6.
     14,           9.,           6.
     15,           0.,           0.
     16,           1.,           0.
     17,   1.14833081,   1.07918704
     18,   1.58232236,   2.07833576
     19,   1.89715481,   2.52435184
     20,   2.69327879,   3.26787949
** ... 906 like lines cut
*Element, type=CPS8R
  1, 309, 308, 165, 164, 331, 332, 333, 334
  2, 168, 167, 195, 315, 335, 336, 337, 338
  3, 315, 195, 215, 247, 337, 339, 340, 341
  4, 171, 170, 320, 256, 342, 343, 344, 345
  5, 269,  94,  93, 270, 346, 347, 348, 349
  6, 184, 204,  37,   6, 350, 351, 352, 353
  7, 189, 201,   7,  38, 354, 355, 356, 357
  8, 259, 275, 285, 264, 358, 359, 360, 361
  9, 187, 205,   8,  39, 362, 363, 364, 365
 10, 209,   9,  40, 186, 366, 367, 368, 369
 11, 290, 304, 294, 258, 370, 371, 372, 373
 12, 150, 149, 310, 250, 374, 375, 376, 377
 13,  14,  56, 130, 242, 378, 379, 380, 381
 14, 153, 154,  82,  81, 382, 383, 384, 385
 15, 230, 236, 242, 130, 386, 387, 380, 388
 16,  54,  53, 131, 142, 389, 390, 391, 392
 17,  52,  51, 132, 141, 393, 394, 395, 396
 18, 203, 191,  63,  22, 397, 398, 399, 400
 19, 234, 222, 227, 318, 401, 402, 403, 404
 20,  45,  44, 133, 135, 405, 406, 407, 408
** ... 246 like lines cut
*Nset, nset=Set-1, generate
   1,  926,    1
*Elset, elset=Set-1, generate
   1,  266,    1
** Section: Section-1
*Solid Section, elset=Set-1, material=Material-1
1.,
*End Part
**  
**
** ASSEMBLY
**
*Assembly, name=Assembly
**  
*Instance, name=Part-1-1, part=Part-1
*End Instance
**  
*Nset, nset=Set-1, instance=Part-1-1
 31,
*Nset, nset=Set-2, instance=Part-1-1
  29,  30,  69, 514, 519
*Elset, elset=Set-2, instance=Part-1-1
 53, 54
*Nset, nset=Set-3, instance=Part-1-1
  15,  16,  57,  58, 418, 492, 495
*Elset, elset=Set-3, instance=Part-1-1
 23, 45, 46
*Elset, elset=_Surf-1_S3, internal, instance=Part-1-1
  45,  92,  96, 102, 104
*Elset, elset=_Surf-1_S2, internal, instance=Part-1-1
  71,  72, 121, 140
*Elset, elset=_Surf-1_S4, internal, instance=Part-1-1
  88,  89,  90,  91,  93,  95,  97,  98,  99, 100, 101, 103, 105
*Surface, type=ELEMENT, name=Surf-1
_Surf-1_S3, S3
_Surf-1_S2, S2
_Surf-1_S4, S4
*End Assembly
** 
** MATERIALS
** 
*Material, name=Material-1
*Elastic
 2.1e+11, 0.21
** ----------------------------------------------------------------
** 
** STEP: Step-1
** 
*Step, name=Step-1, nlgeom=NO
*Static
1., 1., 1e-05, 1.
** 
** BOUNDARY CONDITIONS
** 
** Name: BC-1 Type: Displacement/Rotation
*Boundary
Set-2, 2, 2
** Name: BC-2 Type: Displacement/Rotation
*Boundary
Set-3, 1, 1
Set-3, 2, 2
** 
** LOADS
** 
** Name: Load-1   Type: Pressure
*Dsload
Surf-1, P, 850000.
** Name: Load-2   Type: Concentrated force
*Cload
Set-1, 2, -1e+07
** 
** OUTPUT REQUESTS
** 
*Restart, write, frequency=0
** 
** FIELD OUTPUT: F-Output-1
** 
*Output, field, variable=PRESELECT
** 
** HISTORY OUTPUT: H-Output-1
** 
*Output, history, variable=PRESELECT
*End Step
